150

C    -18.7838776787842328      0.0000000000000000      0.0000000000000000
C    -13.4170554848470935      0.0000000000000000      0.0000000000000000
C    -10.7336443878785239      0.0000000000000000      0.0000000000000000
C     -5.3668221939413829      0.0000000000000000      0.0000000000000000
C     -2.6834110969728133      0.0000000000000000      0.0000000000000000
C      2.6834110969642735      0.0000000000000000      0.0000000000000000
C      5.3668221939328973      0.0000000000000000      0.0000000000000000
C     10.7336443878700365      0.0000000000000000      0.0000000000000000
C     13.4170554848385528      0.0000000000000000      0.0000000000000000
C     18.7838776787758022      0.0000000000000000      0.0000000000000000
C    -17.4421721302999160      2.3239021787718697      0.0000000000000000
C    -14.7587610333313428      2.3239021787718697      0.0000000000000000
C     -9.3919388393942036      2.3239021787718697      0.0000000000000000
C     -6.7085277424256331      2.3239021787718697      0.0000000000000000
C     -1.3417055484884928      2.3239021787718697      0.0000000000000000
C      1.3417055484800773      2.3239021787718697      0.0000000000000000
C      6.7085277424171634      2.3239021787718697      0.0000000000000000
C      9.3919388393857872      2.3239021787718697      0.0000000000000000
C     14.7587610333229282      2.3239021787718697      0.0000000000000000
C     17.4421721302914428      2.3239021787718697      0.0000000000000000
C    -17.4421721302999160     -2.3239021787718697      0.0000000000000000
C    -14.7587610333313428     -2.3239021787718697      0.0000000000000000
C     -9.3919388393942036     -2.3239021787718697      0.0000000000000000
C     -6.7085277424256331     -2.3239021787718697      0.0000000000000000
C     -1.3417055484884928     -2.3239021787718697      0.0000000000000000
C      1.3417055484800773     -2.3239021787718697      0.0000000000000000
C      6.7085277424171634     -2.3239021787718697      0.0000000000000000
C      9.3919388393857872     -2.3239021787718697      0.0000000000000000
C     14.7587610333229282     -2.3239021787718697      0.0000000000000000
C     17.4421721302914428     -2.3239021787718697      0.0000000000000000
C    -17.4421721302999160      6.9717065363156099      0.0000000000000000
C    -14.7587610333313428      6.9717065363156099      0.0000000000000000
C     -9.3919388393942036      6.9717065363156099      0.0000000000000000
C     -6.7085277424256331      6.9717065363156099      0.0000000000000000
C     -1.3417055484884928      6.9717065363156099      0.0000000000000000
C      1.3417055484800773      6.9717065363156099      0.0000000000000000
C      6.7085277424171634      6.9717065363156099      0.0000000000000000
C      9.3919388393857872      6.9717065363156099      0.0000000000000000
C     14.7587610333229282      6.9717065363156099      0.0000000000000000
C     17.4421721302914428      6.9717065363156099      0.0000000000000000
C    -18.7838776787842328      4.6478043575437393      0.0000000000000000
C    -13.4170554848470935      4.6478043575437393      0.0000000000000000
C    -10.7336443878785239      4.6478043575437393      0.0000000000000000
C     -5.3668221939413829      4.6478043575437393      0.0000000000000000
C     -2.6834110969728133      4.6478043575437393      0.0000000000000000
C      2.6834110969642735      4.6478043575437393      0.0000000000000000
C      5.3668221939328973      4.6478043575437393      0.0000000000000000
C     10.7336443878700365      4.6478043575437393      0.0000000000000000
C     13.4170554848385528      4.6478043575437393      0.0000000000000000
C     18.7838776787758022      4.6478043575437393      0.0000000000000000
C    -17.4421721302999160     -6.9717065363156099      0.0000000000000000
C    -14.7587610333313428     -6.9717065363156099      0.0000000000000000
C     -9.3919388393942036     -6.9717065363156099      0.0000000000000000
C     -6.7085277424256331     -6.9717065363156099      0.0000000000000000
C     -1.3417055484884928     -6.9717065363156099      0.0000000000000000
C      1.3417055484800773     -6.9717065363156099      0.0000000000000000
C      6.7085277424171634     -6.9717065363156099      0.0000000000000000
C      9.3919388393857872     -6.9717065363156099      0.0000000000000000
C     14.7587610333229282     -6.9717065363156099      0.0000000000000000
C     17.4421721302914428     -6.9717065363156099      0.0000000000000000
C    -18.7838776787842328     -4.6478043575437393      0.0000000000000000
C    -13.4170554848470935     -4.6478043575437393      0.0000000000000000
C    -10.7336443878785239     -4.6478043575437393      0.0000000000000000
C     -5.3668221939413829     -4.6478043575437393      0.0000000000000000
C     -2.6834110969728133     -4.6478043575437393      0.0000000000000000
C      2.6834110969642735     -4.6478043575437393      0.0000000000000000
C      5.3668221939328973     -4.6478043575437393      0.0000000000000000
C     10.7336443878700365     -4.6478043575437393      0.0000000000000000
C     13.4170554848385528     -4.6478043575437393      0.0000000000000000
C     18.7838776787758022     -4.6478043575437393      0.0000000000000000
C    -17.4421721302999160     11.6195108938593492      0.0000000000000000
C    -14.7587610333313428     11.6195108938593492      0.0000000000000000
C     -9.3919388393942036     11.6195108938593492      0.0000000000000000
C     -6.7085277424256331     11.6195108938593492      0.0000000000000000
C     -1.3417055484884928     11.6195108938593492      0.0000000000000000
C      1.3417055484800773     11.6195108938593492      0.0000000000000000
C      6.7085277424171634     11.6195108938593492      0.0000000000000000
C      9.3919388393857872     11.6195108938593492      0.0000000000000000
C     14.7587610333229282     11.6195108938593492      0.0000000000000000
C     17.4421721302914428     11.6195108938593492      0.0000000000000000
C    -18.7838776787842328      9.2956087150874787      0.0000000000000000
C    -13.4170554848470935      9.2956087150874787      0.0000000000000000
C    -10.7336443878785239      9.2956087150874787      0.0000000000000000
C     -5.3668221939413829      9.2956087150874787      0.0000000000000000
C     -2.6834110969728133      9.2956087150874787      0.0000000000000000
C      2.6834110969642735      9.2956087150874787      0.0000000000000000
C      5.3668221939328973      9.2956087150874787      0.0000000000000000
C     10.7336443878700365      9.2956087150874787      0.0000000000000000
C     13.4170554848385528      9.2956087150874787      0.0000000000000000
C     18.7838776787758022      9.2956087150874787      0.0000000000000000
C    -17.4421721302999160    -11.6195108938593492      0.0000000000000000
C    -14.7587610333313428    -11.6195108938593492      0.0000000000000000
C     -9.3919388393942036    -11.6195108938593492      0.0000000000000000
C     -6.7085277424256331    -11.6195108938593492      0.0000000000000000
C     -1.3417055484884928    -11.6195108938593492      0.0000000000000000
C      1.3417055484800773    -11.6195108938593492      0.0000000000000000
C      6.7085277424171634    -11.6195108938593492      0.0000000000000000
C      9.3919388393857872    -11.6195108938593492      0.0000000000000000
C     14.7587610333229282    -11.6195108938593492      0.0000000000000000
C     17.4421721302914428    -11.6195108938593492      0.0000000000000000
C    -18.7838776787842328     -9.2956087150874787      0.0000000000000000
C    -13.4170554848470935     -9.2956087150874787      0.0000000000000000
C    -10.7336443878785239     -9.2956087150874787      0.0000000000000000
C     -5.3668221939413829     -9.2956087150874787      0.0000000000000000
C     -2.6834110969728133     -9.2956087150874787      0.0000000000000000
C      2.6834110969642735     -9.2956087150874787      0.0000000000000000
C      5.3668221939328973     -9.2956087150874787      0.0000000000000000
C     10.7336443878700365     -9.2956087150874787      0.0000000000000000
C     13.4170554848385528     -9.2956087150874787      0.0000000000000000
C     18.7838776787758022     -9.2956087150874787      0.0000000000000000
C     -9.3919388393942036     16.2673152514030868      0.0000000000000000
C     -6.7085277424256331     16.2673152514030868      0.0000000000000000
C     -1.3417055484884928     16.2673152514030868      0.0000000000000000
C      1.3417055484800773     16.2673152514030868      0.0000000000000000
C      6.7085277424171634     16.2673152514030868      0.0000000000000000
C      9.3919388393857872     16.2673152514030868      0.0000000000000000
C    -13.4170554848470935     13.9434130726312198      0.0000000000000000
C    -10.7336443878785239     13.9434130726312198      0.0000000000000000
C     -5.3668221939413829     13.9434130726312198      0.0000000000000000
C     -2.6834110969728133     13.9434130726312198      0.0000000000000000
C      2.6834110969642735     13.9434130726312198      0.0000000000000000
C      5.3668221939328973     13.9434130726312198      0.0000000000000000
C     10.7336443878700365     13.9434130726312198      0.0000000000000000
C     13.4170554848385528     13.9434130726312198      0.0000000000000000
C     -9.3919388393942036    -16.2673152514030868      0.0000000000000000
C     -6.7085277424256331    -16.2673152514030868      0.0000000000000000
C     -1.3417055484884928    -16.2673152514030868      0.0000000000000000
C      1.3417055484800773    -16.2673152514030868      0.0000000000000000
C      6.7085277424171634    -16.2673152514030868      0.0000000000000000
C      9.3919388393857872    -16.2673152514030868      0.0000000000000000
C    -13.4170554848470935    -13.9434130726312198      0.0000000000000000
C    -10.7336443878785239    -13.9434130726312198      0.0000000000000000
C     -5.3668221939413829    -13.9434130726312198      0.0000000000000000
C     -2.6834110969728133    -13.9434130726312198      0.0000000000000000
C      2.6834110969642735    -13.9434130726312198      0.0000000000000000
C      5.3668221939328973    -13.9434130726312198      0.0000000000000000
C     10.7336443878700365    -13.9434130726312198      0.0000000000000000
C     13.4170554848385528    -13.9434130726312198      0.0000000000000000
C     -1.3417055484884928     20.9151196089468279      0.0000000000000000
C      1.3417055484800773     20.9151196089468279      0.0000000000000000
C     -5.3668221939413829     18.5912174301749573      0.0000000000000000
C     -2.6834110969728133     18.5912174301749573      0.0000000000000000
C      2.6834110969642735     18.5912174301749573      0.0000000000000000
C      5.3668221939328973     18.5912174301749573      0.0000000000000000
C     -1.3417055484884928    -20.9151196089468279      0.0000000000000000
C      1.3417055484800773    -20.9151196089468279      0.0000000000000000
C     -5.3668221939413829    -18.5912174301749573      0.0000000000000000
C     -2.6834110969728133    -18.5912174301749573      0.0000000000000000
C      2.6834110969642735    -18.5912174301749573      0.0000000000000000
C      5.3668221939328973    -18.5912174301749573      0.0000000000000000
